VERS 190529
MODE SEQ
NAME
PFIL 0 0 0
LANG 0
UNIT MM X W X CM MR CPMM
ENPD 90.0
ENVD 20.0 1.0 1
GFAC 0 0
GCAT SCHOTT
RAIM 0 2 1 1 0 0 0 0 0 1
PUSH 0 0 0 0 0 0
SDMA 0 1 0
OMMA 0 0
FTYP 0 0 3 3 0 0 0 1
ROPD 2
HYPR 0
PICB 1
XFLN 0.0 0.0 0.0 
YFLN 0.0 0.1 -0.1 
FWGN 1 1 1 
VDXN 0
VDYN 0
VCXN 0
VCYN 0
VANN 0
WAVM 1 0.5
WAVM 2 0.55
WAVM 3 0.6
WAVM 4 0.55
WAVM 5 0.55
WAVM 6 0.55
WAVM 7 0.55
WAVM 8 0.55
WAVM 9 0.55
WAVM 10 0.55
WAVM 11 0.55
WAVM 12 0.55
WAVM 13 0.55
WAVM 14 0.55
WAVM 15 0.55
WAVM 16 0.55
WAVM 17 0.55
WAVM 18 0.55
WAVM 19 0.55
WAVM 20 0.55
WAVM 21 0.55
WAVM 22 0.55
WAVM 23 0.55
WAVM 24 0.55
PWAV 1
POLS 1 0 1 0 0 1 0
GLRS 1 0
GSTD 0 100.000 100.000 100.000 100.000 100.000 100.000 0 1 1 0 0 1 1 1 1 1 1
NSCD 100 500 0 0.001 10 9.9999999999999995e-07 0 0 0 0 0 0 1000000 0 2
COFN QF "COATING.DAT" "SCATTER_PROFILE.DAT" "ABG_DATA.DAT" "PROFILE.GRD"
COFN COATING.DAT SCATTER_PROFILE.DAT ABG_DATA.DAT PROFILE.GRD
SURF 0
  TYPE STANDARD
  FIMP
  CURV 0 0 0 0 0 ""
  HIDE 0 0 0 0 0 0 0 0 0 0
  MIRR 2 0
  DISZ INFINITY
  MEMA 0 0 0 0 1 ""
  POPS 0 0 0 0 0 0 0 0 1 1 1 1 0 0 0 0
SURF 1
  TYPE STANDARD
  FIMP
  CURV 0.0 0 0 0 0 ""
  HIDE 0 0 0 0 0 0 0 0 0 0
  MIRR 2 0
  DISZ 50.0
  DIAM 0 0 0 0 1 ""
  MEMA 0 0 0 0 1 ""
  POPS 0 0 0 0 0 0 0 0 1 1 1 1 0 0 0 0
SURF 2
  STOP
  TYPE STANDARD
  FIMP
  CURV 0.00599873119444279 0 0 0 0 ""
  HIDE 0 0 0 0 0 0 0 0 0 0
  MIRR 2 0
  DISZ 26.0
  GLAS N-F2 0 0 0 0 0 0 0 0 0 0
  DIAM 55.0 1 0 0 1 ""
  MEMA 0 0 0 0 1 ""
  POPS 0 0 0 0 0 0 0 0 1 1 1 1 0 0 0 0
SURF 3
  TYPE STANDARD
  FIMP
  CURV -0.006309793145849 0 0 0 0 ""
  HIDE 0 0 0 0 0 0 0 0 0 0
  MIRR 2 0
  DISZ 7.0
  GLAS N-SF6 0 0 0 0 0 0 0 0 0 0
  DIAM 55.0 1 0 0 1 ""
  MEMA 0 0 0 0 1 ""
  POPS 0 0 0 0 0 0 0 0 1 1 1 1 0 0 0 0
SURF 4
  TYPE STANDARD
  FIMP
  CURV -0.00135514759409887 0 0 0 0 ""
  HIDE 0 0 0 0 0 0 0 0 0 0
  MIRR 2 0
  DISZ 268.019254698236
  DIAM 55.0 1 0 0 1 ""
  MEMA 0 0 0 0 1 ""
  POPS 0 0 0 0 0 0 0 0 1 1 1 1 0 0 0 0
SURF 5
  TYPE STANDARD
  FIMP
  CURV 0.0135514759409887 0 0 0 0 ""
  HIDE 0 0 0 0 0 0 0 0 0 0
  MIRR 2 0
  DISZ 0.699999999999989
  GLAS N-F2 0 0 0 0 0 0 0 0 0 0
  DIAM 0 0 0 0 1 ""
  MEMA 0 0 0 0 1 ""
  POPS 0 0 0 0 0 0 0 0 1 1 1 1 0 0 0 0
SURF 6
  TYPE STANDARD
  FIMP
  CURV 0.06309793145849 0 0 0 0 ""
  HIDE 0 0 0 0 0 0 0 0 0 0
  MIRR 2 0
  DISZ 2.60000000000002
  GLAS N-SF6 0 0 0 0 0 0 0 0 0 0
  DIAM 5.5 1 0 0 1 ""
  MEMA 0 0 0 0 1 ""
  POPS 0 0 0 0 0 0 0 0 1 1 1 1 0 0 0 0
SURF 7
  TYPE STANDARD
  FIMP
  CURV -0.0599873119444279 0 0 0 0 ""
  HIDE 0 0 0 0 0 0 0 0 0 0
  MIRR 2 0
  DISZ 45.680745301764
  DIAM 5.5 1 0 0 1 ""
  MEMA 0 0 0 0 1 ""
  POPS 0 0 0 0 0 0 0 0 1 1 1 1 0 0 0 0
SURF 8
  TYPE STANDARD
  FIMP
  CURV 0.0 0 0 0 0 ""
  HIDE 0 0 0 0 0 0 0 0 0 0
  MIRR 2 0
  DISZ 0.0
  DIAM 0 0 0 0 1 ""
  MEMA 0 0 0 0 1 ""
  POPS 0 0 0 0 0 0 0 0 1 1 1 1 0 0 0 0
BLNK 
RCMF 25 0
TOL TOFF   0   0 0.0000000000000000E+00 0.0000000000000000E+00   0 0 0 0 0
MNUM 1 1
MOFF   0   1  0 0 0 1 1 0 0.0  0
