VERS 190529
MODE SEQ
NAME
PFIL 0 0 0
LANG 0
UNIT MM X W X CM MR CPMM
ENPD 10.0
ENVD 20.0 1.0 1
GFAC 0 0
GCAT SCHOTT
RAIM 0 2 1 1 0 0 0 0 0 1
PUSH 0 0 0 0 0 0
SDMA 0 1 0
OMMA 0 0
FTYP 0 0 2 4 0 0 0 1
ROPD 2
HYPR 0
PICB 1
XFLN 2.0 0.0 
YFLN 2.0 0.0 
FWGN 1 1 
VDXN 0
VDYN 0
VCXN 0
VCYN 0
VANN 0
WAVM 1 0.55
WAVM 2 0.4861407439734
WAVM 3 0.587567467806412
WAVM 4 0.656284155931112
WAVM 5 0.55
WAVM 6 0.55
WAVM 7 0.55
WAVM 8 0.55
WAVM 9 0.55
WAVM 10 0.55
WAVM 11 0.55
WAVM 12 0.55
WAVM 13 0.55
WAVM 14 0.55
WAVM 15 0.55
WAVM 16 0.55
WAVM 17 0.55
WAVM 18 0.55
WAVM 19 0.55
WAVM 20 0.55
WAVM 21 0.55
WAVM 22 0.55
WAVM 23 0.55
WAVM 24 0.55
PWAV 1
POLS 1 0 1 0 0 1 0
GLRS 1 0
GSTD 0 100.000 100.000 100.000 100.000 100.000 100.000 0 1 1 0 0 1 1 1 1 1 1
NSCD 100 500 0 0.001 10 9.9999999999999995e-07 0 0 0 0 0 0 1000000 0 2
COFN QF "COATING.DAT" "SCATTER_PROFILE.DAT" "ABG_DATA.DAT" "PROFILE.GRD"
COFN COATING.DAT SCATTER_PROFILE.DAT ABG_DATA.DAT PROFILE.GRD
SURF 0
  TYPE STANDARD
  FIMP
  CURV 0 0 0 0 0 ""
  HIDE 0 0 0 0 0 0 0 0 0 0
  MIRR 2 0
  DISZ INFINITY
  MEMA 0 0 0 0 1 ""
  POPS 0 0 0 0 0 0 0 0 1 1 1 1 0 0 0 0
SURF 1
  TYPE STANDARD
  FIMP
  CURV 0.0 0 0 0 0 ""
  HIDE 0 0 0 0 0 0 0 0 0 0
  MIRR 2 0
  DISZ 60.0
  DIAM 0 0 0 0 1 ""
  MEMA 0 0 0 0 1 ""
  POPS 0 0 0 0 0 0 0 0 1 1 1 1 0 0 0 0
SURF 2
  STOP
  TYPE STANDARD
  FIMP
  CURV 0.0025 0 0 0 0 ""
  HIDE 0 0 0 0 0 0 0 0 0 0
  MIRR 2 0
  DISZ 8.0
  GLAS F2 0 0 0 0 0 0 0 0 0 0
  DIAM 40.0 1 0 0 1 ""
  MEMA 0 0 0 0 1 ""
  POPS 0 0 0 0 0 0 0 0 1 1 1 1 0 0 0 0
SURF 3
  TYPE STANDARD
  FIMP
  CURV -0.0025 0 0 0 0 ""
  HIDE 0 0 0 0 0 0 0 0 0 0
  MIRR 2 0
  DISZ 8.0
  GLAS N-BK7 0 0 0 0 0 0 0 0 0 0
  DIAM 40.0 1 0 0 1 ""
  MEMA 0 0 0 0 1 ""
  POPS 0 0 0 0 0 0 0 0 1 1 1 1 0 0 0 0
SURF 4
  TYPE STANDARD
  FIMP
  CURV 0.0 0 0 0 0 ""
  HIDE 0 0 0 0 0 0 0 0 0 0
  MIRR 2 0
  DISZ 429.0
  DIAM 40.0 1 0 0 1 ""
  MEMA 0 0 0 0 1 ""
  POPS 0 0 0 0 0 0 0 0 1 1 1 1 0 0 0 0
SURF 5
  COMM ENTRANCE
  TYPE STANDARD
  FIMP
  CURV 0.0 0 0 0 0 ""
  HIDE 0 0 0 0 0 0 0 0 0 0
  MIRR 2 0
  DISZ 10.0
  GLAS N-BK7 0 0 0 0 0 0 0 0 0 0
  DIAM 14.142135623731 1 0 0 1 ""
  MEMA 0 0 0 0 1 ""
  POPS 0 0 0 0 0 0 0 0 1 1 1 1 0 0 0 0
SURF 6
  TYPE COORDBRK
  FIMP
  CURV 0.0 0 0 0 0 ""
  HIDE 0 0 0 0 0 0 0 0 0 0
  MIRR 2 0
  PARM 1 0.0
  PARM 2 0.0
  PARM 3 -45
  PARM 4 0.0
  PARM 5 -0.0
  DISZ 0.0
  DIAM 0 0 0 0 1 ""
  MEMA 0 0 0 0 1 ""
  POPS 0 0 0 0 0 0 0 0 1 1 1 1 0 0 0 0
SURF 7
  COMM MIRROR
  TYPE STANDARD
  FIMP
  CURV 0.0 0 0 0 0 ""
  HIDE 0 0 0 0 0 0 0 0 0 0
  MIRR 2 0
  DISZ -7.07106781186547
  GLAS MIRROR 0 0 0 0 0 0 0 0 0 0
  DIAM 17.3205080756888 1 0 0 1 ""
  MEMA 0 0 0 0 1 ""
  POPS 0 0 0 0 0 0 0 0 1 1 1 1 0 0 0 0
SURF 8
  TYPE COORDBRK
  FIMP
  CURV 0.0 0 0 0 0 ""
  HIDE 0 0 0 0 0 0 0 0 0 0
  MIRR 2 0
  PARM 1 0.0
  PARM 2 -7.07106781186547
  PARM 3 135.0
  PARM 4 0.0
  PARM 5 -0.0
  DISZ 0.0
  DIAM 0 0 0 0 1 ""
  MEMA 0 0 0 0 1 ""
  POPS 0 0 0 0 0 0 0 0 1 1 1 1 0 0 0 0
SURF 9
  COMM EXIT
  TYPE STANDARD
  FIMP
  CURV 0.0 0 0 0 0 ""
  HIDE 0 0 0 0 0 0 0 0 0 0
  MIRR 2 0
  DISZ 0.0
  DIAM 14.142135623731 1 0 0 1 ""
  MEMA 0 0 0 0 1 ""
  POPS 0 0 0 0 0 0 0 0 1 1 1 1 0 0 0 0
SURF 10
  COMM ENTRANCE
  TYPE STANDARD
  FIMP
  CURV 0.0 0 0 0 0 ""
  HIDE 0 0 0 0 0 0 0 0 0 0
  MIRR 2 0
  DISZ 10
  DIAM 14.142135623731 1 0 0 1 ""
  MEMA 0 0 0 0 1 ""
  POPS 0 0 0 0 0 0 0 0 1 1 1 1 0 0 0 0
SURF 11
  TYPE COORDBRK
  FIMP
  CURV 0.0 0 0 0 0 ""
  HIDE 0 0 0 0 0 0 0 0 0 0
  MIRR 2 0
  PARM 1 0.0
  PARM 2 -1.77635683940025e-15
  PARM 3 -45
  PARM 4 0.0
  PARM 5 -0.0
  DISZ 0.0
  DIAM 0 0 0 0 1 ""
  MEMA 0 0 0 0 1 ""
  POPS 0 0 0 0 0 0 0 0 1 1 1 1 0 0 0 0
SURF 12
  COMM MIRROR
  TYPE STANDARD
  FIMP
  CURV 0.0 0 0 0 0 ""
  HIDE 0 0 0 0 0 0 0 0 0 0
  MIRR 2 0
  DISZ -7.07106781186547
  GLAS MIRROR 0 0 0 0 0 0 0 0 0 0
  DIAM 17.3205080756888 1 0 0 1 ""
  MEMA 0 0 0 0 1 ""
  POPS 0 0 0 0 0 0 0 0 1 1 1 1 0 0 0 0
SURF 13
  TYPE COORDBRK
  FIMP
  CURV 0.0 0 0 0 0 ""
  HIDE 0 0 0 0 0 0 0 0 0 0
  MIRR 2 0
  PARM 1 0.0
  PARM 2 -7.07106781186547
  PARM 3 135.0
  PARM 4 0.0
  PARM 5 -0.0
  DISZ 0.0
  DIAM 0 0 0 0 1 ""
  MEMA 0 0 0 0 1 ""
  POPS 0 0 0 0 0 0 0 0 1 1 1 1 0 0 0 0
SURF 14
  COMM EXIT
  TYPE STANDARD
  FIMP
  CURV 0.0 0 0 0 0 ""
  HIDE 0 0 0 0 0 0 0 0 0 0
  MIRR 2 0
  DISZ 5.0
  DIAM 14.142135623731 1 0 0 1 ""
  MEMA 0 0 0 0 1 ""
  POPS 0 0 0 0 0 0 0 0 1 1 1 1 0 0 0 0
SURF 15
  TYPE COORDBRK
  FIMP
  CURV 0.0 0 0 0 0 ""
  HIDE 0 0 0 0 0 0 0 0 0 0
  MIRR 2 0
  PARM 1 0.0
  PARM 2 0.0
  PARM 3 -0.0
  PARM 4 0.0
  PARM 5 90.0
  DISZ 0.0
  DIAM 0 0 0 0 1 ""
  MEMA 0 0 0 0 1 ""
  POPS 0 0 0 0 0 0 0 0 1 1 1 1 0 0 0 0
SURF 16
  COMM ENTRANCE
  TYPE STANDARD
  FIMP
  CURV 0.0 0 0 0 0 ""
  HIDE 0 0 0 0 0 0 0 0 0 0
  MIRR 2 0
  DISZ 10.0
  DIAM 14.142135623731 1 0 0 1 ""
  MEMA 0 0 0 0 1 ""
  POPS 0 0 0 0 0 0 0 0 1 1 1 1 0 0 0 0
SURF 17
  TYPE COORDBRK
  FIMP
  CURV 0.0 0 0 0 0 ""
  HIDE 0 0 0 0 0 0 0 0 0 0
  MIRR 2 0
  PARM 1 3.5527136788005e-15
  PARM 2 1.97215226305253e-31
  PARM 3 -45
  PARM 4 -7.06225007688025e-31
  PARM 5 -0.0
  DISZ 0.0
  DIAM 0 0 0 0 1 ""
  MEMA 0 0 0 0 1 ""
  POPS 0 0 0 0 0 0 0 0 1 1 1 1 0 0 0 0
SURF 18
  COMM MIRROR
  TYPE STANDARD
  FIMP
  CURV 0.0 0 0 0 0 ""
  HIDE 0 0 0 0 0 0 0 0 0 0
  MIRR 2 0
  DISZ -7.07106781186547
  GLAS MIRROR 0 0 0 0 0 0 0 0 0 0
  DIAM 17.3205080756888 1 0 0 1 ""
  MEMA 0 0 0 0 1 ""
  POPS 0 0 0 0 0 0 0 0 1 1 1 1 0 0 0 0
SURF 19
  TYPE COORDBRK
  FIMP
  CURV 0.0 0 0 0 0 ""
  HIDE 0 0 0 0 0 0 0 0 0 0
  MIRR 2 0
  PARM 1 -3.5527136788005e-15
  PARM 2 -7.07106781186548
  PARM 3 135.0
  PARM 4 -4.2964952914991e-31
  PARM 5 -0.0
  DISZ 0.0
  DIAM 0 0 0 0 1 ""
  MEMA 0 0 0 0 1 ""
  POPS 0 0 0 0 0 0 0 0 1 1 1 1 0 0 0 0
SURF 20
  COMM EXIT
  TYPE STANDARD
  FIMP
  CURV 0.0 0 0 0 0 ""
  HIDE 0 0 0 0 0 0 0 0 0 0
  MIRR 2 0
  DISZ 0.0
  DIAM 14.142135623731 1 0 0 1 ""
  MEMA 0 0 0 0 1 ""
  POPS 0 0 0 0 0 0 0 0 1 1 1 1 0 0 0 0
SURF 21
  COMM ENTRANCE
  TYPE STANDARD
  FIMP
  CURV 0.0 0 0 0 0 ""
  HIDE 0 0 0 0 0 0 0 0 0 0
  MIRR 2 0
  DISZ 10
  DIAM 14.142135623731 1 0 0 1 ""
  MEMA 0 0 0 0 1 ""
  POPS 0 0 0 0 0 0 0 0 1 1 1 1 0 0 0 0
SURF 22
  TYPE COORDBRK
  FIMP
  CURV 0.0 0 0 0 0 ""
  HIDE 0 0 0 0 0 0 0 0 0 0
  MIRR 2 0
  PARM 1 0.0
  PARM 2 0.0
  PARM 3 -45
  PARM 4 7.06225007688025e-31
  PARM 5 7.06225007688025e-31
  DISZ 0.0
  DIAM 0 0 0 0 1 ""
  MEMA 0 0 0 0 1 ""
  POPS 0 0 0 0 0 0 0 0 1 1 1 1 0 0 0 0
SURF 23
  COMM MIRROR
  TYPE STANDARD
  FIMP
  CURV 0.0 0 0 0 0 ""
  HIDE 0 0 0 0 0 0 0 0 0 0
  MIRR 2 0
  DISZ -7.07106781186547
  GLAS MIRROR 0 0 0 0 0 0 0 0 0 0
  DIAM 17.3205080756888 1 0 0 1 ""
  MEMA 0 0 0 0 1 ""
  POPS 0 0 0 0 0 0 0 0 1 1 1 1 0 0 0 0
SURF 24
  TYPE COORDBRK
  FIMP
  CURV 0.0 0 0 0 0 ""
  HIDE 0 0 0 0 0 0 0 0 0 0
  MIRR 2 0
  PARM 1 -3.5527136788005e-15
  PARM 2 -7.07106781186548
  PARM 3 135.0
  PARM 4 -1.41245001537605e-30
  PARM 5 -5.5315095707623e-31
  DISZ 0.0
  DIAM 0 0 0 0 1 ""
  MEMA 0 0 0 0 1 ""
  POPS 0 0 0 0 0 0 0 0 1 1 1 1 0 0 0 0
SURF 25
  COMM EXIT
  TYPE STANDARD
  FIMP
  CURV 0.0 0 0 0 0 ""
  HIDE 0 0 0 0 0 0 0 0 0 0
  MIRR 2 0
  DISZ 50.0
  DIAM 14.142135623731 1 0 0 1 ""
  MEMA 0 0 0 0 1 ""
  POPS 0 0 0 0 0 0 0 0 1 1 1 1 0 0 0 0
SURF 26
  TYPE STANDARD
  FIMP
  CURV 0.0 0 0 0 0 ""
  HIDE 0 0 0 0 0 0 0 0 0 0
  MIRR 2 0
  DISZ 0.0
  DIAM 0 0 0 0 1 ""
  MEMA 0 0 0 0 1 ""
  POPS 0 0 0 0 0 0 0 0 1 1 1 1 0 0 0 0
SURF 27
  TYPE STANDARD
  FIMP
  CURV -0.00833333333333333 0 0 0 0 ""
  HIDE 0 0 0 0 0 0 0 0 0 0
  MIRR 2 0
  DISZ 2.5
  DIAM 10.0 1 0 0 1 ""
  MEMA 0 0 0 0 1 ""
  POPS 0 0 0 0 0 0 0 0 1 1 1 1 0 0 0 0
SURF 28
  TYPE STANDARD
  FIMP
  CURV 0.0238095238095238 0 0 0 0 ""
  HIDE 0 0 0 0 0 0 0 0 0 0
  MIRR 2 0
  DISZ 6.0
  GLAS N-BK7 0 0 0 0 0 0 0 0 0 0
  DIAM 10.0 1 0 0 1 ""
  MEMA 0 0 0 0 1 ""
  POPS 0 0 0 0 0 0 0 0 1 1 1 1 0 0 0 0
SURF 29
  TYPE STANDARD
  FIMP
  CURV -0.0327868852459016 0 0 0 0 ""
  HIDE 0 0 0 0 0 0 0 0 0 0
  MIRR 2 0
  DISZ 0.5
  DIAM 10.0 1 0 0 1 ""
  MEMA 0 0 0 0 1 ""
  POPS 0 0 0 0 0 0 0 0 1 1 1 1 0 0 0 0
SURF 30
  COMM air gap 
  TYPE STANDARD
  FIMP
  CURV 0.0 0 0 0 0 ""
  HIDE 0 0 0 0 0 0 0 0 0 0
  MIRR 2 0
  DISZ 0.0
  DIAM 0 0 0 0 1 ""
  MEMA 0 0 0 0 1 ""
  POPS 0 0 0 0 0 0 0 0 1 1 1 1 0 0 0 0
SURF 31
  TYPE STANDARD
  FIMP
  CURV 0.0235294117647059 0 0 0 0 ""
  HIDE 0 0 0 0 0 0 0 0 0 0
  MIRR 2 0
  DISZ 6.0
  DIAM 10.0 1 0 0 1 ""
  MEMA 0 0 0 0 1 ""
  POPS 0 0 0 0 0 0 0 0 1 1 1 1 0 0 0 0
SURF 32
  TYPE STANDARD
  FIMP
  CURV -0.0327868852459016 0 0 0 0 ""
  HIDE 0 0 0 0 0 0 0 0 0 0
  MIRR 2 0
  DISZ 2.5
  GLAS N-BK7 0 0 0 0 0 0 0 0 0 0
  DIAM 10.0 1 0 0 1 ""
  MEMA 0 0 0 0 1 ""
  POPS 0 0 0 0 0 0 0 0 1 1 1 1 0 0 0 0
SURF 33
  TYPE STANDARD
  FIMP
  CURV -0.00833333333333333 0 0 0 0 ""
  HIDE 0 0 0 0 0 0 0 0 0 0
  MIRR 2 0
  DISZ 0.0
  DIAM 10.0 1 0 0 1 ""
  MEMA 0 0 0 0 1 ""
  POPS 0 0 0 0 0 0 0 0 1 1 1 1 0 0 0 0
BLNK 
RCMF 25 0
TOL TOFF   0   0 0.0000000000000000E+00 0.0000000000000000E+00   0 0 0 0 0
MNUM 1 1
MOFF   0   1  0 0 0 1 1 0 0.0  0
